Version 4
SHEET 1 1448 680
WIRE 1072 -64 1072 -80
WIRE 1072 -64 944 -64
WIRE 944 -32 944 -64
WIRE 1072 16 1072 -64
WIRE 736 64 576 64
WIRE 848 64 816 64
WIRE 944 64 944 48
WIRE 944 64 912 64
WIRE 1008 64 944 64
WIRE 944 96 944 64
WIRE 1072 144 1072 112
FLAG 496 64 0
FLAG 224 112 0
FLAG 224 32 Vcc
IOPIN 224 32 Out
FLAG 1072 224 0
FLAG 1072 -80 Vcc
IOPIN 1072 -80 In
FLAG 944 176 0
SYMBOL res 832 48 R90
WINDOW 0 0 56 VBottom 2
WINDOW 3 32 56 VTop 2
SYMATTR InstName R2
SYMATTR Value 1k
SYMBOL cap 912 48 R90
WINDOW 0 0 32 VBottom 2
WINDOW 3 32 32 VTop 2
SYMATTR InstName C1
SYMATTR Value 1n
SYMBOL voltage 224 16 R0
WINDOW 123 0 0 Left 0
WINDOW 39 0 0 Left 0
SYMATTR InstName V1
SYMATTR Value 5
SYMBOL voltage 592 64 R90
WINDOW 0 -32 56 VBottom 2
WINDOW 3 32 56 VTop 2
WINDOW 123 60 56 VTop 2
WINDOW 39 0 0 Left 0
SYMATTR InstName V2
SYMATTR Value PULSE(0 5 0 10p 10p 35.7n 71.4n)
SYMATTR Value2 AC 1
SYMBOL npn 1008 16 R0
SYMATTR InstName Q1
SYMATTR Value 2N3904
SYMBOL res 1056 128 R0
SYMATTR InstName R1
SYMATTR Value 100
SYMBOL res 928 -48 R0
SYMATTR InstName R3
SYMATTR Value 20k
SYMBOL res 928 80 R0
SYMATTR InstName R4
SYMATTR Value 100k
TEXT 190 152 Left 2 !.tran 0 21u 20u
TEXT 192 184 Left 2 !;ac oct 10k 10meg 20meg
