Version 4
SHEET 1 1288 680
WIRE 1008 -80 1008 -112
WIRE 1008 -80 944 -80
WIRE 1056 -80 1008 -80
WIRE 944 -48 944 -80
WIRE 1056 16 1056 -80
WIRE 736 64 576 64
WIRE 848 64 816 64
WIRE 944 64 944 32
WIRE 944 64 912 64
WIRE 992 64 944 64
WIRE 944 96 944 64
WIRE 1056 128 1056 112
WIRE 1136 128 1056 128
WIRE 1232 128 1200 128
WIRE 1056 144 1056 128
WIRE 1232 160 1232 128
WIRE 944 240 944 176
WIRE 1008 240 944 240
WIRE 1056 240 1056 224
WIRE 1056 240 1008 240
WIRE 1008 256 1008 240
FLAG 496 64 0
FLAG 224 112 0
FLAG 224 32 Vcc
IOPIN 224 32 Out
FLAG 1008 -112 Vcc
IOPIN 1008 -112 In
FLAG 1008 256 0
FLAG 1232 240 0
FLAG 1232 128 out
SYMBOL voltage 592 64 R90
WINDOW 0 -32 56 VBottom 2
WINDOW 3 32 56 VTop 2
WINDOW 123 0 0 Left 0
WINDOW 39 0 0 Left 0
SYMATTR InstName V2
SYMATTR Value PULSE(0 5 0 10p 10p 35.7n 71.4n)
SYMBOL res 832 48 R90
WINDOW 0 0 56 VBottom 2
WINDOW 3 32 56 VTop 2
SYMATTR InstName R2
SYMATTR Value 1k
SYMBOL cap 912 48 R90
WINDOW 0 0 32 VBottom 2
WINDOW 3 32 32 VTop 2
SYMATTR InstName C1
SYMATTR Value 1n
SYMBOL voltage 224 16 R0
WINDOW 123 0 0 Left 0
WINDOW 39 0 0 Left 0
SYMATTR InstName V1
SYMATTR Value 5
SYMBOL npn 992 16 R0
SYMATTR InstName Q1
SYMATTR Value 2N3904
SYMBOL res 928 -64 R0
SYMATTR InstName R1
SYMATTR Value 200k
SYMBOL res 928 80 R0
SYMATTR InstName R3
SYMATTR Value 100k
SYMBOL res 1040 128 R0
SYMATTR InstName R4
SYMATTR Value 100
SYMBOL cap 1200 112 R90
WINDOW 0 0 32 VBottom 2
WINDOW 3 32 32 VTop 2
SYMATTR InstName C2
SYMATTR Value 1n
SYMBOL res 1216 144 R0
SYMATTR InstName R5
SYMATTR Value 50
TEXT 190 152 Left 2 !.tran 1u
