Version 4
SHEET 1 1448 680
WIRE 1152 -112 1152 -128
WIRE 1088 -64 1024 -64
WIRE 1024 -32 1024 -64
WIRE 1152 0 1152 -16
WIRE 1216 0 1152 0
WIRE 1264 0 1216 0
WIRE 1344 0 1328 0
WIRE 1152 16 1152 0
WIRE 1344 16 1344 0
WIRE 672 64 576 64
WIRE 736 64 672 64
WIRE 944 64 816 64
WIRE 1088 64 944 64
WIRE 1024 128 1024 48
WIRE 1152 128 1152 112
WIRE 1152 128 1024 128
WIRE 1152 144 1152 128
FLAG 496 64 0
FLAG 224 112 0
FLAG 224 32 Vcc
IOPIN 224 32 Out
FLAG 1152 -128 Vcc
IOPIN 1152 -128 In
FLAG 1152 224 0
FLAG 1344 96 0
FLAG 944 64 base
FLAG 672 64 ref
FLAG 1216 0 out
FLAG 1344 0 load
SYMBOL res 832 48 R90
WINDOW 0 0 56 VBottom 2
WINDOW 3 32 56 VTop 2
SYMATTR InstName R2
SYMATTR Value 1k
SYMBOL voltage 224 16 R0
WINDOW 123 0 0 Left 0
WINDOW 39 0 0 Left 0
SYMATTR InstName V1
SYMATTR Value 5
SYMBOL voltage 592 64 R90
WINDOW 0 -32 56 VBottom 2
WINDOW 3 32 56 VTop 2
WINDOW 123 60 56 VTop 2
WINDOW 39 0 0 Left 0
SYMATTR InstName V2
SYMATTR Value PULSE(0 5 0 10p 10p 35.7n 71.4n)
SYMATTR Value2 AC 1
SYMBOL pnp 1088 112 M180
SYMATTR InstName Q1
SYMATTR Value 2N3906
SYMBOL pnp 1088 -16 M180
SYMATTR InstName Q2
SYMATTR Value 2N3906
SYMBOL current 1152 144 R0
WINDOW 123 0 0 Left 0
WINDOW 39 0 0 Left 0
SYMATTR InstName I1
SYMATTR Value 10m
SYMBOL voltage 1024 -48 R0
WINDOW 123 0 0 Left 0
WINDOW 39 0 0 Left 0
SYMATTR InstName V4
SYMATTR Value 4
SYMBOL res 1328 0 R0
SYMATTR InstName R3
SYMATTR Value 50
SYMBOL cap 1328 -16 R90
WINDOW 0 0 32 VBottom 2
WINDOW 3 32 32 VTop 2
SYMATTR InstName C2
SYMATTR Value 10n
TEXT 192 152 Left 2 !.tran 0 3u 2u
TEXT 192 184 Left 2 !;ac oct 10k 10meg 20meg
