Version 4
SHEET 1 1448 680
WIRE 1136 -96 1136 -112
WIRE 1088 -80 1056 -80
WIRE 1136 48 1136 0
WIRE 736 64 576 64
WIRE 848 64 816 64
WIRE 960 64 912 64
WIRE 1088 64 960 64
WIRE 1344 64 1344 48
WIRE 960 80 960 64
WIRE 1056 160 1056 -80
WIRE 1136 160 1136 144
WIRE 1136 160 1056 160
WIRE 960 176 960 160
WIRE 1344 176 1344 144
WIRE 1344 176 1248 176
WIRE 1136 208 1136 160
WIRE 1344 208 1344 176
WIRE 1248 288 1248 176
WIRE 1248 288 1184 288
WIRE 1296 288 1248 288
FLAG 496 64 0
FLAG 224 112 0
FLAG 224 32 Vcc
IOPIN 224 32 Out
FLAG 1136 -112 Vcc
IOPIN 1136 -112 Out
FLAG 960 256 0
FLAG 1136 304 0
FLAG 1344 304 0
FLAG 1344 48 Vcc
IOPIN 1344 48 Out
SYMBOL res 832 48 R90
WINDOW 0 0 56 VBottom 2
WINDOW 3 32 56 VTop 2
SYMATTR InstName R2
SYMATTR Value 1k
SYMBOL cap 912 48 R90
WINDOW 0 0 32 VBottom 2
WINDOW 3 32 32 VTop 2
SYMATTR InstName C1
SYMATTR Value 1n
SYMBOL voltage 224 16 R0
WINDOW 123 0 0 Left 0
WINDOW 39 0 0 Left 0
SYMATTR InstName V1
SYMATTR Value 7
SYMBOL voltage 592 64 R90
WINDOW 0 -32 56 VBottom 2
WINDOW 3 32 56 VTop 2
WINDOW 123 60 56 VTop 2
WINDOW 39 0 0 Left 0
SYMATTR InstName V2
SYMATTR Value PULSE(0 1 0 10p 10p 35.7n 71.4n)
SYMATTR Value2 AC 1
SYMBOL res 944 64 R0
SYMATTR InstName R1
SYMATTR Value 100k
SYMBOL voltage 960 160 R0
WINDOW 123 0 0 Left 0
WINDOW 39 0 0 Left 0
SYMATTR InstName V3
SYMATTR Value 6
SYMBOL pmos 1088 0 M180
SYMATTR InstName M1
SYMBOL pmos 1088 144 M180
SYMATTR InstName M2
SYMBOL nmos 1184 208 M0
SYMATTR InstName M3
SYMBOL nmos 1296 208 R0
SYMATTR InstName M4
SYMBOL current 1344 64 R0
WINDOW 123 0 0 Left 0
WINDOW 39 0 0 Left 0
SYMATTR InstName I1
SYMATTR Value 1µ
TEXT 192 152 Left 2 !.tran 1u
TEXT 192 184 Left 2 !;ac oct 10k 10meg 20meg
