Version 4
SHEET 1 880 680
WIRE 160 -336 160 -352
WIRE 160 -240 160 -256
WIRE 224 -240 160 -240
WIRE 160 -224 160 -240
WIRE 160 -224 80 -224
WIRE 80 -208 80 -224
WIRE 160 -208 160 -224
WIRE 384 -128 384 -160
WIRE -32 -112 -32 -128
WIRE 80 -112 80 -128
WIRE 160 -112 160 -128
WIRE 160 -112 80 -112
WIRE 160 -80 160 -112
WIRE 240 -80 160 -80
WIRE 320 -80 240 -80
WIRE 240 -48 240 -80
WIRE 384 0 384 -32
WIRE 480 0 384 0
WIRE 576 0 544 0
WIRE 384 16 384 0
WIRE 240 32 240 16
WIRE 576 32 576 0
WIRE 160 96 160 -80
WIRE 384 112 384 96
WIRE -256 128 -320 128
WIRE -144 128 -176 128
WIRE -32 128 -32 -32
WIRE -32 128 -80 128
WIRE -32 144 -32 128
WIRE 96 144 -32 144
WIRE -32 176 -32 144
WIRE 160 224 160 192
WIRE 240 224 160 224
WIRE 160 240 160 224
WIRE 240 240 240 224
WIRE -32 272 -32 256
WIRE 160 336 160 320
WIRE 240 336 240 304
WIRE 240 336 160 336
WIRE 160 352 160 336
FLAG 160 352 0
FLAG -32 272 0
FLAG -32 -128 vcc
IOPIN -32 -128 In
FLAG 160 -352 vcc
IOPIN 160 -352 In
FLAG -400 128 0
FLAG -400 -16 0
FLAG 576 112 0
FLAG 576 0 out
FLAG -320 -16 vcc
IOPIN -320 -16 Out
FLAG 384 -160 vcc
IOPIN 384 -160 In
FLAG 384 112 0
FLAG 288 -240 0
FLAG 240 32 0
SYMBOL npn 96 96 R0
SYMATTR InstName Q1
SYMATTR Value 2N3904
SYMBOL res 144 224 R0
SYMATTR InstName R1
SYMATTR Value 220
SYMBOL cap 224 240 R0
SYMATTR InstName C1
SYMATTR Value 100n
SYMBOL res -48 160 R0
SYMATTR InstName R3
SYMATTR Value 3.3k
SYMBOL ind 144 -224 R0
SYMATTR InstName L1
SYMATTR Value 600µ
SYMBOL cap -80 112 R90
WINDOW 0 0 32 VBottom 2
WINDOW 3 32 32 VTop 2
SYMATTR InstName C2
SYMATTR Value 1µ
SYMBOL res -160 112 R90
WINDOW 0 0 56 VBottom 2
WINDOW 3 32 56 VTop 2
SYMATTR InstName R4
SYMATTR Value 1k
SYMBOL voltage -304 128 R90
WINDOW 0 -32 56 VBottom 2
WINDOW 3 32 56 VTop 2
WINDOW 123 60 56 VTop 2
WINDOW 39 0 0 Left 0
SYMATTR InstName V1
SYMATTR Value SINE(0 10u 455k)
SYMATTR Value2 AC 1
SYMBOL voltage -304 -16 R90
WINDOW 0 -32 56 VBottom 2
WINDOW 3 32 56 VTop 2
WINDOW 123 0 0 Left 0
WINDOW 39 0 0 Left 0
SYMATTR InstName V2
SYMATTR Value 5
SYMBOL cap 544 -16 R90
WINDOW 0 0 32 VBottom 2
WINDOW 3 32 32 VTop 2
SYMATTR InstName C4
SYMATTR Value 1µ
SYMBOL res 560 16 R0
SYMATTR InstName R5
SYMATTR Value 51
SYMBOL res -48 -128 R0
SYMATTR InstName R6
SYMATTR Value 6.8k
SYMBOL res 144 -352 R0
SYMATTR InstName R7
SYMATTR Value 51
SYMBOL npn 320 -128 R0
SYMATTR InstName Q3
SYMATTR Value 2N3904
SYMBOL res 368 0 R0
SYMATTR InstName R8
SYMATTR Value 510
SYMBOL res 64 -224 R0
SYMATTR InstName R9
SYMATTR Value 10k
SYMBOL cap 288 -256 R90
WINDOW 0 0 32 VBottom 2
WINDOW 3 32 32 VTop 2
SYMATTR InstName C3
SYMATTR Value 1µ
SYMBOL cap 224 -48 R0
SYMATTR InstName C5
SYMATTR Value 20p
TEXT -440 312 Left 2 !.tran 100u
TEXT -440 344 Left 2 ;.ac lin 10k 400k 500k
