Version 4
SHEET 1 880 680
WIRE 224 -320 112 -320
WIRE 336 -320 224 -320
WIRE 224 -288 224 -320
WIRE 224 -288 160 -288
WIRE 224 -272 224 -288
WIRE 160 -256 160 -288
WIRE 160 -176 160 -192
WIRE 224 -176 224 -192
WIRE 224 -176 160 -176
WIRE 224 -160 224 -176
WIRE 336 -80 336 -320
WIRE 128 -48 112 -48
WIRE 144 -48 128 -48
WIRE 224 -48 224 -80
WIRE 224 -48 208 -48
WIRE 224 -32 224 -48
WIRE 224 -16 224 -32
WIRE 336 32 336 0
WIRE 336 32 288 32
WIRE 336 48 336 32
WIRE 368 48 336 48
WIRE 416 48 368 48
WIRE 336 80 336 48
WIRE 416 80 416 48
WIRE 48 96 0 96
WIRE 80 96 48 96
WIRE 176 96 144 96
WIRE 224 96 224 80
WIRE 224 96 176 96
WIRE 224 112 224 96
WIRE 336 176 336 160
WIRE 384 176 336 176
WIRE 416 176 416 144
WIRE 416 176 384 176
WIRE 384 192 384 176
FLAG -80 96 0
FLAG 224 192 0
FLAG 32 -320 0
FLAG 384 192 0
FLAG 48 96 in
FLAG 176 96 em
FLAG 32 -48 0
FLAG 224 -32 co
FLAG 128 -48 out
FLAG 368 48 bs
SYMBOL voltage 16 96 R90
WINDOW 0 -50 41 VRight 2
WINDOW 3 46 -70 VRight 2
WINDOW 123 74 -7 VRight 2
WINDOW 39 0 0 Left 0
SYMATTR InstName V1
SYMATTR Value SINE(0 100m 14meg)
SYMATTR Value2 AC 100m 0
SYMBOL npn 288 -16 M0
SYMATTR InstName Q1
SYMATTR Value 2N3904
SYMBOL res 208 96 R0
SYMATTR InstName R1
SYMATTR Value 510
SYMBOL res 320 64 R0
SYMATTR InstName R2
SYMATTR Value 5k
SYMBOL res 320 -96 R0
SYMATTR InstName R3
SYMATTR Value 15k
SYMBOL voltage 128 -320 R90
WINDOW 123 0 0 Left 0
WINDOW 39 0 0 Left 0
SYMATTR InstName V2
SYMATTR Value 9
SYMBOL cap 400 80 R0
SYMATTR InstName C1
SYMATTR Value 1µ
SYMBOL res 208 -288 R0
SYMATTR InstName R4
SYMATTR Value 1.2k
SYMBOL cap 144 80 R90
WINDOW 0 0 32 VBottom 2
WINDOW 3 32 32 VTop 2
SYMATTR InstName C2
SYMATTR Value 100p
SYMBOL cap 208 -64 R90
WINDOW 0 0 32 VBottom 2
WINDOW 3 32 32 VTop 2
SYMATTR InstName C3
SYMATTR Value 1µ
SYMBOL res 128 -64 R90
WINDOW 0 0 56 VBottom 2
WINDOW 3 32 56 VTop 2
SYMATTR InstName R5
SYMATTR Value 100k
SYMBOL res 208 -176 R0
SYMATTR InstName R6
SYMATTR Value 120
SYMBOL cap 144 -256 R0
SYMATTR InstName C4
SYMATTR Value 1µ
TEXT -232 -184 Left 2 !;ac lin 10000 14meg 14.35meg
TEXT -232 -216 Left 2 !.tran 300n
