Version 4
SHEET 1 880 680
WIRE 144 96 64 96
WIRE 272 96 224 96
WIRE 384 96 272 96
WIRE 384 112 384 96
WIRE 64 128 64 96
WIRE 272 128 272 96
WIRE 272 208 272 192
WIRE 384 208 384 192
FLAG 64 208 0
FLAG 272 208 0
FLAG 384 208 0
SYMBOL voltage 64 112 R0
WINDOW 123 24 124 Left 2
WINDOW 39 0 0 Left 0
SYMATTR InstName V1
SYMATTR Value 0
SYMATTR Value2 AC 100m 0
SYMBOL cap 256 128 R0
SYMATTR InstName C1
SYMATTR Value 220p
SYMBOL ind 240 80 R90
WINDOW 0 5 56 VBottom 2
WINDOW 3 32 56 VTop 2
SYMATTR InstName L1
SYMATTR Value 550n
SYMBOL res 368 96 R0
SYMATTR InstName R1
SYMATTR Value 100
TEXT 48 312 Left 2 !.ac lin 10000 14meg 14.35meg
