Version 4
SHEET 1 2152 680
WIRE 1728 208 1728 192
WIRE 2032 256 2032 240
WIRE 1376 272 1264 272
WIRE 1504 272 1376 272
WIRE 1616 272 1568 272
WIRE 1680 272 1616 272
WIRE 1616 304 1616 272
WIRE 1728 320 1728 304
WIRE 1808 320 1728 320
WIRE 1920 320 1872 320
WIRE 1984 320 1920 320
WIRE 1728 336 1728 320
WIRE 880 352 832 352
WIRE 928 352 880 352
WIRE 1008 352 992 352
WIRE 1056 352 1008 352
WIRE 1152 352 1056 352
WIRE 1264 352 1264 272
WIRE 1264 352 1248 352
WIRE 1312 352 1264 352
WIRE 1424 352 1392 352
WIRE 1920 352 1920 320
WIRE 2032 368 2032 352
WIRE 1056 384 1056 352
WIRE 2032 384 2032 368
WIRE 1424 400 1424 352
WIRE 1456 400 1424 400
WIRE 1200 448 1200 416
WIRE 1200 448 1168 448
WIRE 1232 448 1200 448
WIRE 1264 448 1232 448
WIRE 1424 448 1424 400
WIRE 1424 448 1344 448
WIRE 1168 480 1168 448
WIRE 1232 480 1232 448
WIRE 1168 576 1168 544
WIRE 1200 576 1168 576
WIRE 1232 576 1232 560
WIRE 1232 576 1200 576
WIRE 1200 592 1200 576
FLAG 752 352 0
FLAG 880 352 in
FLAG 1008 352 em
FLAG 1056 464 0
FLAG 1200 592 0
FLAG 1616 384 0
FLAG 1376 272 co
FLAG 992 224 vcc
IOPIN 992 224 Out
FLAG 912 224 0
FLAG 1456 400 vcc
IOPIN 1456 400 In
FLAG 1728 192 vcc
IOPIN 1728 192 In
FLAG 1728 416 0
FLAG 1920 432 0
FLAG 2032 240 vcc
IOPIN 2032 240 In
FLAG 2032 464 0
FLAG 2032 368 out
SYMBOL voltage 848 352 R90
WINDOW 0 -50 41 VRight 2
WINDOW 3 46 -70 VRight 2
WINDOW 123 74 -7 VRight 2
WINDOW 39 0 0 Left 0
SYMATTR InstName V3
SYMATTR Value SINE(0 500m 14meg)
SYMATTR Value2 AC 500m 0
SYMBOL cap 992 336 R90
WINDOW 0 0 32 VBottom 2
WINDOW 3 32 32 VTop 2
SYMATTR InstName C1
SYMATTR Value 50p
SYMBOL npn 1248 416 M270
SYMATTR InstName Q2
SYMATTR Value 2N3904
SYMBOL res 1040 368 R0
SYMATTR InstName R7
SYMATTR Value 1k
SYMBOL res 1216 464 R0
SYMATTR InstName R8
SYMATTR Value 68k
SYMBOL res 1360 432 R90
WINDOW 0 0 56 VBottom 2
WINDOW 3 32 56 VTop 2
SYMATTR InstName R9
SYMATTR Value 220k
SYMBOL cap 1152 480 R0
SYMATTR InstName C5
SYMATTR Value 1µ
SYMBOL cap 1568 256 R90
WINDOW 0 0 32 VBottom 2
WINDOW 3 32 32 VTop 2
SYMATTR InstName C7
SYMATTR Value 1µ
SYMBOL res 1600 288 R0
SYMATTR InstName R12
SYMATTR Value 820
SYMBOL ind 1408 336 R90
WINDOW 0 5 56 VBottom 2
WINDOW 3 32 56 VTop 2
SYMATTR InstName L1
SYMATTR Value 20µ
SYMBOL voltage 1008 224 R90
WINDOW 0 -32 56 VBottom 2
WINDOW 3 32 56 VTop 2
WINDOW 123 0 0 Left 0
WINDOW 39 0 0 Left 0
SYMATTR InstName V1
SYMATTR Value 13.8
SYMBOL njf 1680 208 R0
SYMATTR InstName J1
SYMATTR Value J112
SYMBOL res 1712 320 R0
SYMATTR InstName R1
SYMATTR Value 510
SYMBOL cap 1872 304 R90
WINDOW 0 0 32 VBottom 2
WINDOW 3 32 32 VTop 2
SYMATTR InstName C2
SYMATTR Value 1µ
SYMBOL res 1904 336 R0
SYMATTR InstName R2
SYMATTR Value 1Meg
SYMBOL njf 1984 256 R0
SYMATTR InstName J2
SYMATTR Value J112
SYMBOL res 2016 368 R0
SYMATTR InstName R3
SYMATTR Value 51
TEXT 752 544 Left 2 !.ac lin 10000 14meg 14.35meg
TEXT 752 512 Left 2 !;tran 300n
TEXT 1560 424 Left 2 ;adjust for\nphase shift
